@<TRIPOS>MOLECULE
7xf7-centered.pdb
30 30 1 0 0
SMALL
NO_CHARGES


@<TRIPOS>ATOM
      1 C1          1.9050   -0.6830    9.1090 C.3       1 NDG    0.3179
      2 C2          3.4010   -0.7520    8.8300 C.3       1 NDG    0.0957
      3 C3          4.0660   -1.6010   10.0390 C.3       1 NDG    0.1291
      4 C4          3.6530   -0.8490   11.4240 C.3       1 NDG    0.0831
      5 C5          2.0500   -0.7960   11.4940 C.3       1 NDG    0.0721
      6 C6          1.6510    0.0600   12.7360 C.3       1 NDG    0.1314
      7 C7          4.0780   -0.9720    6.4680 C.2       1 NDG    0.6641
      8 C8          4.3460   -1.9280    5.2920 C.3       1 NDG   -0.1741
      9 O5          1.6810    0.0050   10.3390 O.3       1 NDG   -0.4566
     10 O3          5.5130   -1.7880    9.8980 O.3       1 NDG   -0.5958
     11 O4          4.3070   -1.4870   12.5610 O.3       1 NDG   -0.6038
     12 O6          0.9550    1.2580   12.4120 O.3       1 NDG   -0.6028
     13 O7          4.2080    0.2390    6.3890 O.2       1 NDG   -0.6061
     14 N2          3.6740   -1.5570    7.6280 N.am      1 NDG   -0.5539
     15 O1          1.3550   -1.9810    9.1340 O.3       1 NDG   -0.6228
     16 H2          3.7910    0.2740    8.7750 H         1 NDG    0.1117
     17 H3          3.6560   -2.6220   10.0090 H         1 NDG    0.0637
     18 H4          4.0550    0.1780   11.3910 H         1 NDG    0.0727
     19 H61         2.5400    0.3510   13.3010 H         1 NDG    0.0582
     20 H62         1.0050   -0.5140   13.4040 H         1 NDG    0.0582
     21 H81         3.4500   -2.4930    5.0130 H         1 NDG    0.0674
     22 H82         5.1240   -2.6610    5.5320 H         1 NDG    0.0674
     23 H83         4.6780   -1.3920    4.3970 H         1 NDG    0.0674
     24 HO3         5.7130   -2.2750   10.7300 H         1 NDG    0.4230
     25 HO4         4.7810   -0.6240   12.8370 H         1 NDG    0.4180
     26 HO6         0.1020    1.0020   12.0260 H         1 NDG    0.4170
     27 HN2         3.2620   -2.4780    7.6070 H         1 NDG    0.3165
     28 H1          1.4286   -0.1206    8.3060 H         1 NDG    0.0877
     29 H5          1.5903   -1.7843   11.4919 H         1 NDG    0.0717
     30 HO1         1.1618   -2.2645    8.2374 H         1 NDG    0.4180
@<TRIPOS>BOND
     1    1    2 1
     2    1    9 1
     3    1   15 1
     4    2    3 1
     5    2   14 1
     6    2   16 1
     7    3    4 1
     8    3   10 1
     9    3   17 1
    10    4    5 1
    11    4   11 1
    12    4   18 1
    13    5    6 1
    14    5    9 1
    15    6   12 1
    16    6   19 1
    17    6   20 1
    18    7    8 1
    19    7   13 2
    20    7   14 am
    21    8   21 1
    22    8   22 1
    23    8   23 1
    24   10   24 1
    25   11   25 1
    26   12   26 1
    27   14   27 1
    28   28    1 1
    29   29    5 1
    30   30   15 1
@<TRIPOS>SUBSTRUCTURE
     1 NDG     1 RESIDUE           4 B     NDG     0 ROOT
